*Heading
** Job name: Gear_Compaction_Sector Model name: Sector
** Generated by: Abaqus/CAE 2023
*Preprint, echo=NO, model=NO, history=NO, contact=NO
**
** PARTS
**
*Part, name=Die_Lower
*Node
      1,   22.4650002,           0.,           0.
      2,   22.4538536,           0.,  0.707566321
      3,   22.4538536,          -9.,  0.707566321
      4,   22.4650002,          -9.,           0.
      5,   19.9608994,           0.,         1.25
      6,   19.9608994,          -9.,         1.25
      7,   19.8747082,           0.,   2.23516417
      8,   19.8747082,          -9.,   2.23516417
      9,   22.2355976,           0.,   3.20225406
     10,   22.2355976,          -9.,   3.20225406
     11,     22.11273,           0.,   3.89907098
     12,     22.11273,          -9.,   3.89907098
     13,   17.5788193,          -9.,   3.09961987
     14,   15.2349758,  -8.18999958,   2.68633723
     15,   15.4700003,  -8.18999958,           0.
     16,   17.8500004,          -9.,           0.
     17,   3.65856075,  -8.18999958,  0.645102978
     18,   3.65856075,           0.,  0.645102978
     19,   3.71499991,           0.,           0.
     20,   3.71499991,  -8.18999958,           0.
** ... 537 like lines cut
*Element, type=R3D4
 1,   1,  23, 270,  58
 2,  23,   2,  24, 270
 3,  58, 270, 271,  57
 4, 270,  24,  25, 271
 5,  57, 271, 272,  56
 6, 271,  25,  26, 272
 7,  56, 272, 273,  55
 8, 272,  26,  27, 273
 9,  55, 273, 274,  54
10, 273,  27,  28, 274
11,  54, 274, 275,  53
12, 274,  28,  29, 275
13,  53, 275, 276,  52
14, 275,  29,  30, 276
15,  52, 276, 277,  51
16, 276,  30,  31, 277
17,  51, 277, 278,  50
18, 277,  31,  32, 278
19,  50, 278, 279,  49
20, 278,  32,  33, 279
** ... 442 like lines cut
*Element, type=R3D3
317, 193,  21,  12
318, 193,  12,  10
319,   8, 102, 194
320,   6, 194, 102
321, 195,   3,  41
322,  41,   4, 195
323, 466, 197, 465
324, 487, 478, 486
325, 489, 475, 485
375, 234, 501, 233
376, 555, 541, 534
377, 554, 549, 537
469, 263,  22, 264
*Node
    558,           0.,  -8.18999958, 9.47264262e-16
*Nset, nset=Die_Lower-RefPt_, internal
558, 
*Elset, elset=_Die_Lower_Cont_SNEG, internal, generate
   1,  468,    1
*Surface, type=ELEMENT, name=Die_Lower_Cont
_Die_Lower_Cont_SNEG, SNEG
*Elset, elset=Die_Lower, generate
   1,  475,    1
*End Part
**  
*Part, name=Die_Upper
*Node
      1,   17.5788193,          -9.,   3.09961987
      2,   15.2349758,  -8.18999958,   2.68633723
      3,   15.4700003,  -8.18999958,           0.
      4,   17.8500004,          -9.,           0.
      5,   22.1237068,          -9.,   3.90100622
      6,   22.4650002,          -9.,           0.
      7,   22.4538536,          -9.,  0.707566321
      8,   19.9608994,          -9.,         1.25
      9,   19.8747082,          -9.,   2.23516417
     10,   22.2355976,          -9.,   3.20225406
     11,   3.65856075,  -8.18999958,  0.645102978
     12,   3.71499991,  -8.18999958,           0.
     13,   17.1100502,   -8.8380003,   3.01696348
     14,   16.6412811,  -8.67599964,   2.93430686
     15,   16.1725121,  -8.51399994,   2.85165048
     16,   15.7037449,  -8.35200024,   2.76899385
     17,   15.3066626,  -8.18999958,   2.24209595
     18,   15.3653975,  -8.18999958,   1.79595733
     19,   15.4111319,  -8.18999958,   1.34829938
     20,   15.4438276,  -8.18999958,  0.899500489
** ... 202 like lines cut
*Element, type=R3D4
 1,   1,  13, 104,  30
 2,  13,  14, 105, 104
 3,  14,  15, 106, 105
 4,  15,  16, 107, 106
 5,  16,   2,  17, 107
 6,  30, 104, 108,  29
 7, 104, 105, 109, 108
 8, 105, 106, 110, 109
 9, 106, 107, 111, 110
10, 107,  17,  18, 111
11,  29, 108, 112,  28
12, 108, 109, 113, 112
13, 109, 110, 114, 113
14, 110, 111, 115, 114
15, 111,  18,  19, 115
16,  28, 112, 116,  27
17, 112, 113, 117, 116
18, 113, 114, 118, 117
19, 114, 115, 119, 118
20, 115,  19,  20, 119
** ... 153 like lines cut
*Element, type=R3D3
82,  80, 164,  79
83, 166, 160, 165
84, 209, 198, 194
*Node
    223,           0.,  -8.18999958, 9.47264262e-16
*Nset, nset=Die_Upper-RefPt_, internal
223, 
*Elset, elset=_Die_Upper_Cont_SNEG, internal, generate
   1,  176,    1
*Surface, type=ELEMENT, name=Die_Upper_Cont
_Die_Upper_Cont_SNEG, SNEG
*Elset, elset=Die_Upper, generate
   1,  176,    1
*End Part
**  
*Part, name=Green_Compact
*Node
      1,   17.6127625,   3.10560513,           0.
      2,   22.1581745,   3.90708399,           0.
      3,   22.2792988,   3.22015548,           0.
      4,   19.8747082,   2.23516417,           0.
      5,   19.9608994,         1.25,           0.
      6,         22.5,   0.69752562,           0.
      7,         22.5,           0.,           0.
      8,          20.,           0.,           0.
      9,   17.8850002,           0.,           0.
     10,    15.268919,   2.69232249,  0.810000002
     11,   15.5050001,           0.,  0.810000002
     12,   3.69302917,  0.651180685,  0.810000002
     13,         3.75,           0.,  0.810000002
     14,   17.8519936,   3.14778829,           0.
     15,   18.0912266,   3.18997145,           0.
     16,   18.3304596,   3.23215437,           0.
     17,   18.5696907,   3.27433753,           0.
     18,   18.8089237,   3.31652069,           0.
     19,   19.0481548,   3.35870361,           0.
     20,   19.2873878,   3.40088677,           0.
** ... 26875 like lines cut
*Element, type=C3D8R
    1,   225,   358,   320,   282,  1040,  1173,  1135,  1097
    2,   236,   235,    44,    43,  1051,  1050,   859,   858
    3,   212,    79,    78,   215,  1027,   894,   893,  1030
    4,   215,    78,    77,   217,  1030,   893,   892,  1032
    5,    46,   260,   247,    47,   861,  1075,  1062,   862
    6,    60,    59,   243,   372,   875,   874,  1058,  1187
    7,   341,   326,   286,   282,  1156,  1141,  1101,  1097
    8,   269,    71,    70,   270,  1084,   886,   885,  1085
    9,    69,    68,   267,   266,   884,   883,  1082,  1081
   10,   271,    32,     2,    31,  1086,   847,   817,   846
   11,    32,   271,   209,    33,   847,  1086,  1024,   848
   12,   209,   261,    35,    34,  1024,  1076,   850,   849
   13,   233,   321,   261,   223,  1048,  1136,  1076,  1038
   14,    37,    36,   253,   255,   852,   851,  1068,  1070
   15,   261,   321,   255,   253,  1076,  1136,  1070,  1068
   16,    28,    27,   231,   220,   843,   842,  1046,  1035
   17,   292,   309,   281,   291,  1107,  1124,  1096,  1106
   18,    26,    25,   227,   224,   841,   840,  1042,  1039
   19,   256,   308,   377,   257,  1071,  1123,  1192,  1072
   20,   234,   232,    23,    22,  1049,  1047,   838,   837
** ... 23084 like lines cut
*Nset, nset=Set-1, generate
     1,  26895,      1
*Elset, elset=Set-1, generate
     1,  23104,      1
*Elset, elset=_Powder_Cont_S6, internal
     5,    11,    27,    36,    38,    40,    76,    96,   102,   103,   104,   340,   727,   733,   749,   758
   760,   762,   798,   818,   824,   825,   826,  1062,  1449,  1455,  1471,  1480,  1482,  1484,  1520,  1540
  1546,  1547,  1548,  1784,  2171,  2177,  2193,  2202,  2204,  2206,  2242,  2262,  2268,  2269,  2270,  2506
  2893,  2899,  2915,  2924,  2926,  2928,  2964,  2984,  2990,  2991,  2992,  3228,  3615,  3621,  3637,  3646
  3648,  3650,  3686,  3706,  3712,  3713,  3714,  3950,  4337,  4343,  4359,  4368,  4370,  4372,  4408,  4428
  4434,  4435,  4436,  4672,  5059,  5065,  5081,  5090,  5092,  5094,  5130,  5150,  5156,  5157,  5158,  5394
  5781,  5787,  5803,  5812,  5814,  5816,  5852,  5872,  5878,  5879,  5880,  6116,  6503,  6509,  6525,  6534
  6536,  6538,  6574,  6594,  6600,  6601,  6602,  6838,  7225,  7231,  7247,  7256,  7258,  7260,  7296,  7316
  7322,  7323,  7324,  7560,  7947,  7953,  7969,  7978,  7980,  7982,  8018,  8038,  8044,  8045,  8046,  8282
  8669,  8675,  8691,  8700,  8702,  8704,  8740,  8760,  8766,  8767,  8768,  9004,  9391,  9397,  9413,  9422
  9424,  9426,  9462,  9482,  9488,  9489,  9490,  9726, 10113, 10119, 10135, 10144, 10146, 10148, 10184, 10204
 10210, 10211, 10212, 10448, 10835, 10841, 10857, 10866, 10868, 10870, 10906, 10926, 10932, 10933, 10934, 11170
 11557, 11563, 11579, 11588, 11590, 11592, 11628, 11648, 11654, 11655, 11656, 11892, 12279, 12285, 12301, 12310
 12312, 12314, 12350, 12370, 12376, 12377, 12378, 12614, 13001, 13007, 13023, 13032, 13034, 13036, 13072, 13092
 13098, 13099, 13100, 13336, 13723, 13729, 13745, 13754, 13756, 13758, 13794, 13814, 13820, 13821, 13822, 14058
 14445, 14451, 14467, 14476, 14478, 14480, 14516, 14536, 14542, 14543, 14544, 14780, 15167, 15173, 15189, 15198
 15200, 15202, 15238, 15258, 15264, 15265, 15266, 15502, 15889, 15895, 15911, 15920, 15922, 15924, 15960, 15980
 15986, 15987, 15988, 16224, 16611, 16617, 16633, 16642, 16644, 16646, 16682, 16702, 16708, 16709, 16710, 16946
 17333, 17339, 17355, 17364, 17366, 17368, 17404, 17424, 17430, 17431, 17432, 17668, 18055, 18061, 18077, 18086
 18088, 18090, 18126, 18146, 18152, 18153, 18154, 18390, 18777, 18783, 18799, 18808, 18810, 18812, 18848, 18868
** ... 4 like lines cut
*Elset, elset=_Powder_Cont_S3, internal
    14,    29,    31,    87,    92,    93,   113,   344,   736,   751,   753,   809,   814,   815,   835,  1066
  1458,  1473,  1475,  1531,  1536,  1537,  1557,  1788,  2180,  2195,  2197,  2253,  2258,  2259,  2279,  2510
  2902,  2917,  2919,  2975,  2980,  2981,  3001,  3232,  3624,  3639,  3641,  3697,  3702,  3703,  3723,  3954
  4346,  4361,  4363,  4419,  4424,  4425,  4445,  4676,  5068,  5083,  5085,  5141,  5146,  5147,  5167,  5398
  5790,  5805,  5807,  5863,  5868,  5869,  5889,  6120,  6512,  6527,  6529,  6585,  6590,  6591,  6611,  6842
  7234,  7249,  7251,  7307,  7312,  7313,  7333,  7564,  7956,  7971,  7973,  8029,  8034,  8035,  8055,  8286
  8678,  8693,  8695,  8751,  8756,  8757,  8777,  9008,  9400,  9415,  9417,  9473,  9478,  9479,  9499,  9730
 10122, 10137, 10139, 10195, 10200, 10201, 10221, 10452, 10844, 10859, 10861, 10917, 10922, 10923, 10943, 11174
 11566, 11581, 11583, 11639, 11644, 11645, 11665, 11896, 12288, 12303, 12305, 12361, 12366, 12367, 12387, 12618
 13010, 13025, 13027, 13083, 13088, 13089, 13109, 13340, 13732, 13747, 13749, 13805, 13810, 13811, 13831, 14062
 14454, 14469, 14471, 14527, 14532, 14533, 14553, 14784, 15176, 15191, 15193, 15249, 15254, 15255, 15275, 15506
 15898, 15913, 15915, 15971, 15976, 15977, 15997, 16228, 16620, 16635, 16637, 16693, 16698, 16699, 16719, 16950
 17342, 17357, 17359, 17415, 17420, 17421, 17441, 17672, 18064, 18079, 18081, 18137, 18142, 18143, 18163, 18394
 18786, 18801, 18803, 18859, 18864, 18865, 18885, 19116, 19508, 19523, 19525, 19581, 19586, 19587, 19607, 19838
 20230, 20245, 20247, 20303, 20308, 20309, 20329, 20560, 20952, 20967, 20969, 21025, 21030, 21031, 21051, 21282
 21674, 21689, 21691, 21747, 21752, 21753, 21773, 22004, 22396, 22411, 22413, 22469, 22474, 22475, 22495, 22726
*Elset, elset=_Powder_Cont_S4, internal
    10,    67,    94,   109,   110,   111,   387,   732,   789,   816,   831,   832,   833,  1109,  1454,  1511
  1538,  1553,  1554,  1555,  1831,  2176,  2233,  2260,  2275,  2276,  2277,  2553,  2898,  2955,  2982,  2997
  2998,  2999,  3275,  3620,  3677,  3704,  3719,  3720,  3721,  3997,  4342,  4399,  4426,  4441,  4442,  4443
  4719,  5064,  5121,  5148,  5163,  5164,  5165,  5441,  5786,  5843,  5870,  5885,  5886,  5887,  6163,  6508
  6565,  6592,  6607,  6608,  6609,  6885,  7230,  7287,  7314,  7329,  7330,  7331,  7607,  7952,  8009,  8036
  8051,  8052,  8053,  8329,  8674,  8731,  8758,  8773,  8774,  8775,  9051,  9396,  9453,  9480,  9495,  9496
  9497,  9773, 10118, 10175, 10202, 10217, 10218, 10219, 10495, 10840, 10897, 10924, 10939, 10940, 10941, 11217
 11562, 11619, 11646, 11661, 11662, 11663, 11939, 12284, 12341, 12368, 12383, 12384, 12385, 12661, 13006, 13063
 13090, 13105, 13106, 13107, 13383, 13728, 13785, 13812, 13827, 13828, 13829, 14105, 14450, 14507, 14534, 14549
 14550, 14551, 14827, 15172, 15229, 15256, 15271, 15272, 15273, 15549, 15894, 15951, 15978, 15993, 15994, 15995
 16271, 16616, 16673, 16700, 16715, 16716, 16717, 16993, 17338, 17395, 17422, 17437, 17438, 17439, 17715, 18060
 18117, 18144, 18159, 18160, 18161, 18437, 18782, 18839, 18866, 18881, 18882, 18883, 19159, 19504, 19561, 19588
 19603, 19604, 19605, 19881, 20226, 20283, 20310, 20325, 20326, 20327, 20603, 20948, 21005, 21032, 21047, 21048
 21049, 21325, 21670, 21727, 21754, 21769, 21770, 21771, 22047, 22392, 22449, 22476, 22491, 22492, 22493, 22769
*Elset, elset=_Powder_Cont_S1, internal, generate
   1,  722,    1
*Elset, elset=_Powder_Cont_S2, internal, generate
 22383,  23104,      1
*Elset, elset=_Powder_Cont_S5, internal
     2,    12,    27,    36,    44,    69,   724,   734,   749,   758,   766,   791,  1446,  1456,  1471,  1480
  1488,  1513,  2168,  2178,  2193,  2202,  2210,  2235,  2890,  2900,  2915,  2924,  2932,  2957,  3612,  3622
  3637,  3646,  3654,  3679,  4334,  4344,  4359,  4368,  4376,  4401,  5056,  5066,  5081,  5090,  5098,  5123
  5778,  5788,  5803,  5812,  5820,  5845,  6500,  6510,  6525,  6534,  6542,  6567,  7222,  7232,  7247,  7256
  7264,  7289,  7944,  7954,  7969,  7978,  7986,  8011,  8666,  8676,  8691,  8700,  8708,  8733,  9388,  9398
  9413,  9422,  9430,  9455, 10110, 10120, 10135, 10144, 10152, 10177, 10832, 10842, 10857, 10866, 10874, 10899
 11554, 11564, 11579, 11588, 11596, 11621, 12276, 12286, 12301, 12310, 12318, 12343, 12998, 13008, 13023, 13032
 13040, 13065, 13720, 13730, 13745, 13754, 13762, 13787, 14442, 14452, 14467, 14476, 14484, 14509, 15164, 15174
 15189, 15198, 15206, 15231, 15886, 15896, 15911, 15920, 15928, 15953, 16608, 16618, 16633, 16642, 16650, 16675
 17330, 17340, 17355, 17364, 17372, 17397, 18052, 18062, 18077, 18086, 18094, 18119, 18774, 18784, 18799, 18808
 18816, 18841, 19496, 19506, 19521, 19530, 19538, 19563, 20218, 20228, 20243, 20252, 20260, 20285, 20940, 20950
 20965, 20974, 20982, 21007, 21662, 21672, 21687, 21696, 21704, 21729, 22384, 22394, 22409, 22418, 22426, 22451
*Surface, type=ELEMENT, name=Powder_Cont
_Powder_Cont_S6, S6
_Powder_Cont_S3, S3
_Powder_Cont_S4, S4
_Powder_Cont_S2, S2
_Powder_Cont_S1, S1
_Powder_Cont_S5, S5
** Section: Powder
*Solid Section, elset=Set-1, controls=EC-1, material=Powder
,
*End Part
**  
**
** ASSEMBLY
**
*Assembly, name=Assembly
**  
*Instance, name=Die_Lower-1, part=Die_Lower
       0.035,           0.,           9.
       0.035,           0.,           9., 1.02743251777865, 0.086826592607882, 9.08682659260788, 90.4352295036925
*End Instance
**  
*Instance, name=Green_Compact-1, part=Green_Compact
*End Instance
**  
*Instance, name=Die_Upper-1, part=Die_Upper
       0.035,           0.,        -0.19
       0.035,           0.,        -0.19, -0.965000012688052,           0.,        -0.19, 89.9999992730282
*End Instance
**  
*Nset, nset=Set-1, instance=Green_Compact-1
     7,     8,     9,    11,    13,    57,    58,    59,    60,    61,    62,    63,    64,    65,    66,    67
    68,    69,    70,    71,    72,    94,    95,    96,    97,    98,    99,   100,   101,   102,   161,   162
   163,   164,   165,   166,   167,   168,   169,   170,   171,   172,   173,   174,   175,   176,   177,   178
   179,   180,   181,   182,   183,   184,   185,   186,   187,   188,   189,   190,   191,   192,   193,   194
   195,   196,   197,   198,   199,   200,   201,   202,   203,   204,   205,   206,   822,   823,   824,   826
   828,   872,   873,   874,   875,   876,   877,   878,   879,   880,   881,   882,   883,   884,   885,   886
   887,   909,   910,   911,   912,   913,   914,   915,   916,   917,   976,   977,   978,   979,   980,   981
   982,   983,   984,   985,   986,   987,   988,   989,   990,   991,   992,   993,   994,   995,   996,   997
   998,   999,  1000,  1001,  1002,  1003,  1004,  1005,  1006,  1007,  1008,  1009,  1010,  1011,  1012,  1013
  1014,  1015,  1016,  1017,  1018,  1019,  1020,  1021,  1637,  1638,  1639,  1641,  1643,  1687,  1688,  1689
  1690,  1691,  1692,  1693,  1694,  1695,  1696,  1697,  1698,  1699,  1700,  1701,  1702,  1724,  1725,  1726
  1727,  1728,  1729,  1730,  1731,  1732,  1791,  1792,  1793,  1794,  1795,  1796,  1797,  1798,  1799,  1800
  1801,  1802,  1803,  1804,  1805,  1806,  1807,  1808,  1809,  1810,  1811,  1812,  1813,  1814,  1815,  1816
  1817,  1818,  1819,  1820,  1821,  1822,  1823,  1824,  1825,  1826,  1827,  1828,  1829,  1830,  1831,  1832
  1833,  1834,  1835,  1836,  2452,  2453,  2454,  2456,  2458,  2502,  2503,  2504,  2505,  2506,  2507,  2508
  2509,  2510,  2511,  2512,  2513,  2514,  2515,  2516,  2517,  2539,  2540,  2541,  2542,  2543,  2544,  2545
  2546,  2547,  2606,  2607,  2608,  2609,  2610,  2611,  2612,  2613,  2614,  2615,  2616,  2617,  2618,  2619
  2620,  2621,  2622,  2623,  2624,  2625,  2626,  2627,  2628,  2629,  2630,  2631,  2632,  2633,  2634,  2635
  2636,  2637,  2638,  2639,  2640,  2641,  2642,  2643,  2644,  2645,  2646,  2647,  2648,  2649,  2650,  2651
  3267,  3268,  3269,  3271,  3273,  3317,  3318,  3319,  3320,  3321,  3322,  3323,  3324,  3325,  3326,  3327
** ... 137 like lines cut
*Elset, elset=Set-1, instance=Green_Compact-1
     6,     8,     9,    37,    41,    44,    45,    46,    47,    48,    49,    51,    52,    53,    98,   107
   123,   126,   330,   331,   332,   333,   334,   335,   336,   337,   338,   339,   362,   365,   369,   374
   376,   380,   381,   387,   388,   391,   394,   395,   396,   401,   406,   409,   410,   412,   419,   420
   424,   427,   428,   429,   435,   449,   450,   452,   453,   454,   455,   456,   457,   459,   462,   470
   471,   473,   475,   477,   480,   482,   487,   488,   489,   500,   520,   728,   730,   731,   759,   763
   766,   767,   768,   769,   770,   771,   773,   774,   775,   820,   829,   845,   848,  1052,  1053,  1054
  1055,  1056,  1057,  1058,  1059,  1060,  1061,  1084,  1087,  1091,  1096,  1098,  1102,  1103,  1109,  1110
  1113,  1116,  1117,  1118,  1123,  1128,  1131,  1132,  1134,  1141,  1142,  1146,  1149,  1150,  1151,  1157
  1171,  1172,  1174,  1175,  1176,  1177,  1178,  1179,  1181,  1184,  1192,  1193,  1195,  1197,  1199,  1202
  1204,  1209,  1210,  1211,  1222,  1242,  1450,  1452,  1453,  1481,  1485,  1488,  1489,  1490,  1491,  1492
  1493,  1495,  1496,  1497,  1542,  1551,  1567,  1570,  1774,  1775,  1776,  1777,  1778,  1779,  1780,  1781
  1782,  1783,  1806,  1809,  1813,  1818,  1820,  1824,  1825,  1831,  1832,  1835,  1838,  1839,  1840,  1845
  1850,  1853,  1854,  1856,  1863,  1864,  1868,  1871,  1872,  1873,  1879,  1893,  1894,  1896,  1897,  1898
  1899,  1900,  1901,  1903,  1906,  1914,  1915,  1917,  1919,  1921,  1924,  1926,  1931,  1932,  1933,  1944
  1964,  2172,  2174,  2175,  2203,  2207,  2210,  2211,  2212,  2213,  2214,  2215,  2217,  2218,  2219,  2264
  2273,  2289,  2292,  2496,  2497,  2498,  2499,  2500,  2501,  2502,  2503,  2504,  2505,  2528,  2531,  2535
  2540,  2542,  2546,  2547,  2553,  2554,  2557,  2560,  2561,  2562,  2567,  2572,  2575,  2576,  2578,  2585
  2586,  2590,  2593,  2594,  2595,  2601,  2615,  2616,  2618,  2619,  2620,  2621,  2622,  2623,  2625,  2628
  2636,  2637,  2639,  2641,  2643,  2646,  2648,  2653,  2654,  2655,  2666,  2686,  2894,  2896,  2897,  2925
  2929,  2932,  2933,  2934,  2935,  2936,  2937,  2939,  2940,  2941,  2986,  2995,  3011,  3014,  3218,  3219
** ... 130 like lines cut
*Nset, nset=Set-3, instance=Die_Lower-1
 558,
*Nset, nset=Set-4, instance=Die_Upper-1
 223,
*Nset, nset=Set-5, instance=Die_Upper-1
 223,
*Nset, nset=_PickedSet66, internal, instance=Die_Lower-1
 558,
*Nset, nset=_PickedSet67, internal, instance=Die_Upper-1
 223,
*Elset, elset=_m_Surf-1_S3, internal, instance=Green_Compact-1
     6,     9,    41,    45,    47,    98,   330,   331,   332,   333,   334,   335,   336,   337,   338,   339
   374,   376,   381,   388,   391,   394,   395,   396,   401,   410,   412,   419,   424,   453,   459,   462
   470,   471,   473,   475,   477,   480,   489,   728,   731,   763,   767,   769,   820,  1052,  1053,  1054
  1055,  1056,  1057,  1058,  1059,  1060,  1061,  1096,  1098,  1103,  1110,  1113,  1116,  1117,  1118,  1123
  1132,  1134,  1141,  1146,  1175,  1181,  1184,  1192,  1193,  1195,  1197,  1199,  1202,  1211,  1450,  1453
  1485,  1489,  1491,  1542,  1774,  1775,  1776,  1777,  1778,  1779,  1780,  1781,  1782,  1783,  1818,  1820
  1825,  1832,  1835,  1838,  1839,  1840,  1845,  1854,  1856,  1863,  1868,  1897,  1903,  1906,  1914,  1915
  1917,  1919,  1921,  1924,  1933,  2172,  2175,  2207,  2211,  2213,  2264,  2496,  2497,  2498,  2499,  2500
  2501,  2502,  2503,  2504,  2505,  2540,  2542,  2547,  2554,  2557,  2560,  2561,  2562,  2567,  2576,  2578
  2585,  2590,  2619,  2625,  2628,  2636,  2637,  2639,  2641,  2643,  2646,  2655,  2894,  2897,  2929,  2933
  2935,  2986,  3218,  3219,  3220,  3221,  3222,  3223,  3224,  3225,  3226,  3227,  3262,  3264,  3269,  3276
  3279,  3282,  3283,  3284,  3289,  3298,  3300,  3307,  3312,  3341,  3347,  3350,  3358,  3359,  3361,  3363
  3365,  3368,  3377,  3616,  3619,  3651,  3655,  3657,  3708,  3940,  3941,  3942,  3943,  3944,  3945,  3946
  3947,  3948,  3949,  3984,  3986,  3991,  3998,  4001,  4004,  4005,  4006,  4011,  4020,  4022,  4029,  4034
  4063,  4069,  4072,  4080,  4081,  4083,  4085,  4087,  4090,  4099,  4338,  4341,  4373,  4377,  4379,  4430
  4662,  4663,  4664,  4665,  4666,  4667,  4668,  4669,  4670,  4671,  4706,  4708,  4713,  4720,  4723,  4726
  4727,  4728,  4733,  4742,  4744,  4751,  4756,  4785,  4791,  4794,  4802,  4803,  4805,  4807,  4809,  4812
  4821,  5060,  5063,  5095,  5099,  5101,  5152,  5384,  5385,  5386,  5387,  5388,  5389,  5390,  5391,  5392
  5393,  5428,  5430,  5435,  5442,  5445,  5448,  5449,  5450,  5455,  5464,  5466,  5473,  5478,  5507,  5513
  5516,  5524,  5525,  5527,  5529,  5531,  5534,  5543,  5782,  5785,  5817,  5821,  5823,  5874,  6106,  6107
** ... 58 like lines cut
*Elset, elset=_m_Surf-1_S4, internal, instance=Green_Compact-1
     8,    44,    49,   730,   766,   771,  1452,  1488,  1493,  2174,  2210,  2215,  2896,  2932,  2937,  3618
  3654,  3659,  4340,  4376,  4381,  5062,  5098,  5103,  5784,  5820,  5825,  6506,  6542,  6547,  7228,  7264
  7269,  7950,  7986,  7991,  8672,  8708,  8713,  9394,  9430,  9435, 10116, 10152, 10157, 10838, 10874, 10879
 11560, 11596, 11601, 12282, 12318, 12323, 13004, 13040, 13045, 13726, 13762, 13767, 14448, 14484, 14489, 15170
 15206, 15211, 15892, 15928, 15933, 16614, 16650, 16655, 17336, 17372, 17377, 18058, 18094, 18099, 18780, 18816
 18821, 19502, 19538, 19543, 20224, 20260, 20265, 20946, 20982, 20987, 21668, 21704, 21709, 22390, 22426, 22431
*Elset, elset=_m_Surf-1_S5, internal, instance=Green_Compact-1
    37,    46,    48,    51,    52,   107,   123,   126,   362,   365,   369,   380,   387,   406,   409,   420
   427,   428,   429,   435,   449,   450,   452,   454,   455,   456,   457,   482,   487,   488,   500,   520
   759,   768,   770,   773,   774,   829,   845,   848,  1084,  1087,  1091,  1102,  1109,  1128,  1131,  1142
  1149,  1150,  1151,  1157,  1171,  1172,  1174,  1176,  1177,  1178,  1179,  1204,  1209,  1210,  1222,  1242
  1481,  1490,  1492,  1495,  1496,  1551,  1567,  1570,  1806,  1809,  1813,  1824,  1831,  1850,  1853,  1864
  1871,  1872,  1873,  1879,  1893,  1894,  1896,  1898,  1899,  1900,  1901,  1926,  1931,  1932,  1944,  1964
  2203,  2212,  2214,  2217,  2218,  2273,  2289,  2292,  2528,  2531,  2535,  2546,  2553,  2572,  2575,  2586
  2593,  2594,  2595,  2601,  2615,  2616,  2618,  2620,  2621,  2622,  2623,  2648,  2653,  2654,  2666,  2686
  2925,  2934,  2936,  2939,  2940,  2995,  3011,  3014,  3250,  3253,  3257,  3268,  3275,  3294,  3297,  3308
  3315,  3316,  3317,  3323,  3337,  3338,  3340,  3342,  3343,  3344,  3345,  3370,  3375,  3376,  3388,  3408
  3647,  3656,  3658,  3661,  3662,  3717,  3733,  3736,  3972,  3975,  3979,  3990,  3997,  4016,  4019,  4030
  4037,  4038,  4039,  4045,  4059,  4060,  4062,  4064,  4065,  4066,  4067,  4092,  4097,  4098,  4110,  4130
  4369,  4378,  4380,  4383,  4384,  4439,  4455,  4458,  4694,  4697,  4701,  4712,  4719,  4738,  4741,  4752
  4759,  4760,  4761,  4767,  4781,  4782,  4784,  4786,  4787,  4788,  4789,  4814,  4819,  4820,  4832,  4852
  5091,  5100,  5102,  5105,  5106,  5161,  5177,  5180,  5416,  5419,  5423,  5434,  5441,  5460,  5463,  5474
  5481,  5482,  5483,  5489,  5503,  5504,  5506,  5508,  5509,  5510,  5511,  5536,  5541,  5542,  5554,  5574
  5813,  5822,  5824,  5827,  5828,  5883,  5899,  5902,  6138,  6141,  6145,  6156,  6163,  6182,  6185,  6196
  6203,  6204,  6205,  6211,  6225,  6226,  6228,  6230,  6231,  6232,  6233,  6258,  6263,  6264,  6276,  6296
  6535,  6544,  6546,  6549,  6550,  6605,  6621,  6624,  6860,  6863,  6867,  6878,  6885,  6904,  6907,  6918
  6925,  6926,  6927,  6933,  6947,  6948,  6950,  6952,  6953,  6954,  6955,  6980,  6985,  6986,  6998,  7018
** ... 44 like lines cut
*Elset, elset=_m_Surf-1_S6, internal, instance=Green_Compact-1, generate
    53,  22435,    722
*Surface, type=ELEMENT, name=m_Surf-1
_m_Surf-1_S3, S3
_m_Surf-1_S4, S4
_m_Surf-1_S6, S6
_m_Surf-1_S5, S5
*Elset, elset=_s_Surf-1_S5, internal, instance=Green_Compact-1
    10,    20,    21,    64,    66,    73,    78,    79,    81,    84,    86,   210,   211,   212,   213,   214
   215,   216,   217,   218,   219,   340,   345,   732,   742,   743,   786,   788,   795,   800,   801,   803
   806,   808,   932,   933,   934,   935,   936,   937,   938,   939,   940,   941,  1062,  1067,  1454,  1464
  1465,  1508,  1510,  1517,  1522,  1523,  1525,  1528,  1530,  1654,  1655,  1656,  1657,  1658,  1659,  1660
  1661,  1662,  1663,  1784,  1789,  2176,  2186,  2187,  2230,  2232,  2239,  2244,  2245,  2247,  2250,  2252
  2376,  2377,  2378,  2379,  2380,  2381,  2382,  2383,  2384,  2385,  2506,  2511,  2898,  2908,  2909,  2952
  2954,  2961,  2966,  2967,  2969,  2972,  2974,  3098,  3099,  3100,  3101,  3102,  3103,  3104,  3105,  3106
  3107,  3228,  3233,  3620,  3630,  3631,  3674,  3676,  3683,  3688,  3689,  3691,  3694,  3696,  3820,  3821
  3822,  3823,  3824,  3825,  3826,  3827,  3828,  3829,  3950,  3955,  4342,  4352,  4353,  4396,  4398,  4405
  4410,  4411,  4413,  4416,  4418,  4542,  4543,  4544,  4545,  4546,  4547,  4548,  4549,  4550,  4551,  4672
  4677,  5064,  5074,  5075,  5118,  5120,  5127,  5132,  5133,  5135,  5138,  5140,  5264,  5265,  5266,  5267
  5268,  5269,  5270,  5271,  5272,  5273,  5394,  5399,  5786,  5796,  5797,  5840,  5842,  5849,  5854,  5855
  5857,  5860,  5862,  5986,  5987,  5988,  5989,  5990,  5991,  5992,  5993,  5994,  5995,  6116,  6121,  6508
  6518,  6519,  6562,  6564,  6571,  6576,  6577,  6579,  6582,  6584,  6708,  6709,  6710,  6711,  6712,  6713
  6714,  6715,  6716,  6717,  6838,  6843,  7230,  7240,  7241,  7284,  7286,  7293,  7298,  7299,  7301,  7304
  7306,  7430,  7431,  7432,  7433,  7434,  7435,  7436,  7437,  7438,  7439,  7560,  7565,  7952,  7962,  7963
  8006,  8008,  8015,  8020,  8021,  8023,  8026,  8028,  8152,  8153,  8154,  8155,  8156,  8157,  8158,  8159
  8160,  8161,  8282,  8287,  8674,  8684,  8685,  8728,  8730,  8737,  8742,  8743,  8745,  8748,  8750,  8874
  8875,  8876,  8877,  8878,  8879,  8880,  8881,  8882,  8883,  9004,  9009,  9396,  9406,  9407,  9450,  9452
  9459,  9464,  9465,  9467,  9470,  9472,  9596,  9597,  9598,  9599,  9600,  9601,  9602,  9603,  9604,  9605
** ... 26 like lines cut
*Elset, elset=_s_Surf-1_S3, internal, instance=Green_Compact-1
    16,    18,    22,    25,    32,    33,   738,   740,   744,   747,   754,   755,  1460,  1462,  1466,  1469
  1476,  1477,  2182,  2184,  2188,  2191,  2198,  2199,  2904,  2906,  2910,  2913,  2920,  2921,  3626,  3628
  3632,  3635,  3642,  3643,  4348,  4350,  4354,  4357,  4364,  4365,  5070,  5072,  5076,  5079,  5086,  5087
  5792,  5794,  5798,  5801,  5808,  5809,  6514,  6516,  6520,  6523,  6530,  6531,  7236,  7238,  7242,  7245
  7252,  7253,  7958,  7960,  7964,  7967,  7974,  7975,  8680,  8682,  8686,  8689,  8696,  8697,  9402,  9404
  9408,  9411,  9418,  9419, 10124, 10126, 10130, 10133, 10140, 10141, 10846, 10848, 10852, 10855, 10862, 10863
 11568, 11570, 11574, 11577, 11584, 11585, 12290, 12292, 12296, 12299, 12306, 12307, 13012, 13014, 13018, 13021
 13028, 13029, 13734, 13736, 13740, 13743, 13750, 13751, 14456, 14458, 14462, 14465, 14472, 14473, 15178, 15180
 15184, 15187, 15194, 15195, 15900, 15902, 15906, 15909, 15916, 15917, 16622, 16624, 16628, 16631, 16638, 16639
 17344, 17346, 17350, 17353, 17360, 17361, 18066, 18068, 18072, 18075, 18082, 18083, 18788, 18790, 18794, 18797
 18804, 18805, 19510, 19512, 19516, 19519, 19526, 19527, 20232, 20234, 20238, 20241, 20248, 20249, 20954, 20956
 20960, 20963, 20970, 20971, 21676, 21678, 21682, 21685, 21692, 21693, 22398, 22400, 22404, 22407, 22414, 22415
*Elset, elset=_s_Surf-1_S6, internal, instance=Green_Compact-1
    26,   342,   352,   353,   354,   357,   359,   361,   363,   364,   366,   368,   370,   371,   373,   375
   377,   379,   393,   400,   403,   413,   416,   423,   451,   748,  1064,  1074,  1075,  1076,  1079,  1081
  1083,  1085,  1086,  1088,  1090,  1092,  1093,  1095,  1097,  1099,  1101,  1115,  1122,  1125,  1135,  1138
  1145,  1173,  1470,  1786,  1796,  1797,  1798,  1801,  1803,  1805,  1807,  1808,  1810,  1812,  1814,  1815
  1817,  1819,  1821,  1823,  1837,  1844,  1847,  1857,  1860,  1867,  1895,  2192,  2508,  2518,  2519,  2520
  2523,  2525,  2527,  2529,  2530,  2532,  2534,  2536,  2537,  2539,  2541,  2543,  2545,  2559,  2566,  2569
  2579,  2582,  2589,  2617,  2914,  3230,  3240,  3241,  3242,  3245,  3247,  3249,  3251,  3252,  3254,  3256
  3258,  3259,  3261,  3263,  3265,  3267,  3281,  3288,  3291,  3301,  3304,  3311,  3339,  3636,  3952,  3962
  3963,  3964,  3967,  3969,  3971,  3973,  3974,  3976,  3978,  3980,  3981,  3983,  3985,  3987,  3989,  4003
  4010,  4013,  4023,  4026,  4033,  4061,  4358,  4674,  4684,  4685,  4686,  4689,  4691,  4693,  4695,  4696
  4698,  4700,  4702,  4703,  4705,  4707,  4709,  4711,  4725,  4732,  4735,  4745,  4748,  4755,  4783,  5080
  5396,  5406,  5407,  5408,  5411,  5413,  5415,  5417,  5418,  5420,  5422,  5424,  5425,  5427,  5429,  5431
  5433,  5447,  5454,  5457,  5467,  5470,  5477,  5505,  5802,  6118,  6128,  6129,  6130,  6133,  6135,  6137
  6139,  6140,  6142,  6144,  6146,  6147,  6149,  6151,  6153,  6155,  6169,  6176,  6179,  6189,  6192,  6199
  6227,  6524,  6840,  6850,  6851,  6852,  6855,  6857,  6859,  6861,  6862,  6864,  6866,  6868,  6869,  6871
  6873,  6875,  6877,  6891,  6898,  6901,  6911,  6914,  6921,  6949,  7246,  7562,  7572,  7573,  7574,  7577
  7579,  7581,  7583,  7584,  7586,  7588,  7590,  7591,  7593,  7595,  7597,  7599,  7613,  7620,  7623,  7633
  7636,  7643,  7671,  7968,  8284,  8294,  8295,  8296,  8299,  8301,  8303,  8305,  8306,  8308,  8310,  8312
  8313,  8315,  8317,  8319,  8321,  8335,  8342,  8345,  8355,  8358,  8365,  8393,  8690,  9006,  9016,  9017
  9018,  9021,  9023,  9025,  9027,  9028,  9030,  9032,  9034,  9035,  9037,  9039,  9041,  9043,  9057,  9064
** ... 30 like lines cut
*Elset, elset=_s_Surf-1_S4, internal, instance=Green_Compact-1
    80,   343,   349,   350,   355,   356,   358,   367,   431,   433,   441,   442,   443,   444,   448,   461
   463,   464,   465,   466,   467,   468,   802,  1065,  1071,  1072,  1077,  1078,  1080,  1089,  1153,  1155
  1163,  1164,  1165,  1166,  1170,  1183,  1185,  1186,  1187,  1188,  1189,  1190,  1524,  1787,  1793,  1794
  1799,  1800,  1802,  1811,  1875,  1877,  1885,  1886,  1887,  1888,  1892,  1905,  1907,  1908,  1909,  1910
  1911,  1912,  2246,  2509,  2515,  2516,  2521,  2522,  2524,  2533,  2597,  2599,  2607,  2608,  2609,  2610
  2614,  2627,  2629,  2630,  2631,  2632,  2633,  2634,  2968,  3231,  3237,  3238,  3243,  3244,  3246,  3255
  3319,  3321,  3329,  3330,  3331,  3332,  3336,  3349,  3351,  3352,  3353,  3354,  3355,  3356,  3690,  3953
  3959,  3960,  3965,  3966,  3968,  3977,  4041,  4043,  4051,  4052,  4053,  4054,  4058,  4071,  4073,  4074
  4075,  4076,  4077,  4078,  4412,  4675,  4681,  4682,  4687,  4688,  4690,  4699,  4763,  4765,  4773,  4774
  4775,  4776,  4780,  4793,  4795,  4796,  4797,  4798,  4799,  4800,  5134,  5397,  5403,  5404,  5409,  5410
  5412,  5421,  5485,  5487,  5495,  5496,  5497,  5498,  5502,  5515,  5517,  5518,  5519,  5520,  5521,  5522
  5856,  6119,  6125,  6126,  6131,  6132,  6134,  6143,  6207,  6209,  6217,  6218,  6219,  6220,  6224,  6237
  6239,  6240,  6241,  6242,  6243,  6244,  6578,  6841,  6847,  6848,  6853,  6854,  6856,  6865,  6929,  6931
  6939,  6940,  6941,  6942,  6946,  6959,  6961,  6962,  6963,  6964,  6965,  6966,  7300,  7563,  7569,  7570
  7575,  7576,  7578,  7587,  7651,  7653,  7661,  7662,  7663,  7664,  7668,  7681,  7683,  7684,  7685,  7686
  7687,  7688,  8022,  8285,  8291,  8292,  8297,  8298,  8300,  8309,  8373,  8375,  8383,  8384,  8385,  8386
  8390,  8403,  8405,  8406,  8407,  8408,  8409,  8410,  8744,  9007,  9013,  9014,  9019,  9020,  9022,  9031
  9095,  9097,  9105,  9106,  9107,  9108,  9112,  9125,  9127,  9128,  9129,  9130,  9131,  9132,  9466,  9729
  9735,  9736,  9741,  9742,  9744,  9753,  9817,  9819,  9827,  9828,  9829,  9830,  9834,  9847,  9849,  9850
  9851,  9852,  9853,  9854, 10188, 10451, 10457, 10458, 10463, 10464, 10466, 10475, 10539, 10541, 10549, 10550
** ... 24 like lines cut
*Surface, type=ELEMENT, name=s_Surf-1
_s_Surf-1_S5, S5
_s_Surf-1_S3, S3
_s_Surf-1_S6, S6
_s_Surf-1_S4, S4
*Rigid Body, ref node=Die_Lower-1.Die_Lower-RefPt_, elset=Die_Lower-1.Die_Lower
*Rigid Body, ref node=Die_Upper-1.Die_Upper-RefPt_, elset=Die_Upper-1.Die_Upper
*Tie, name=Cyc-SYM, cyclic symmetry, adjust=yes
s_Surf-1, m_Surf-1
*Elset, elset=__GenCont_gcs0_10_SPOS, internal, instance=Die_Lower-1, generate
 271,  300,    1
*Surface, type=ELEMENT, name=_GenCont_gcs0_10, internal
__GenCont_gcs0_10_SPOS, SPOS
*Elset, elset=__GenCont_gcs0_12_SPOS, internal, instance=Die_Lower-1, generate
 301,  316,    1
*Surface, type=ELEMENT, name=_GenCont_gcs0_12, internal
__GenCont_gcs0_12_SPOS, SPOS
*Elset, elset=__GenCont_gcs0_23_SNEG, internal, instance=Die_Lower-1, generate
 271,  300,    1
*Surface, type=ELEMENT, name=_GenCont_gcs0_23, internal
__GenCont_gcs0_23_SNEG, SNEG
*Elset, elset=__GenCont_gcs0_25_SNEG, internal, instance=Die_Lower-1, generate
 301,  316,    1
*Surface, type=ELEMENT, name=_GenCont_gcs0_25, internal
__GenCont_gcs0_25_SNEG, SNEG
*Elset, elset=__GenCont_gcs0_28_S6, internal, instance=Green_Compact-1, generate
   340,  22722,    722
*Elset, elset=__GenCont_gcs0_28_S3, internal, instance=Green_Compact-1, generate
   344,  22726,    722
*Elset, elset=__GenCont_gcs0_28_S4, internal, instance=Green_Compact-1, generate
   387,  22769,    722
*Surface, type=ELEMENT, name=_GenCont_gcs0_28, internal
__GenCont_gcs0_28_S6, S6
__GenCont_gcs0_28_S3, S3
__GenCont_gcs0_28_S4, S4
*Elset, elset=__GenCont_gcs0_30_S1, internal, instance=Green_Compact-1, generate
 210,  339,    1
*Surface, type=ELEMENT, name=_GenCont_gcs0_30, internal
__GenCont_gcs0_30_S1, S1
*Elset, elset=__GenCont_gcs0_35_S5, internal, instance=Green_Compact-1, generate
     2,  22384,    722
*Elset, elset=__GenCont_gcs0_35_S6, internal, instance=Green_Compact-1
    76,    96,   798,   818,  1520,  1540,  2242,  2262,  2964,  2984,  3686,  3706,  4408,  4428,  5130,  5150
  5852,  5872,  6574,  6594,  7296,  7316,  8018,  8038,  8740,  8760,  9462,  9482, 10184, 10204, 10906, 10926
 11628, 11648, 12350, 12370, 13072, 13092, 13794, 13814, 14516, 14536, 15238, 15258, 15960, 15980, 16682, 16702
 17404, 17424, 18126, 18146, 18848, 18868, 19570, 19590, 20292, 20312, 21014, 21034, 21736, 21756, 22458, 22478
*Elset, elset=__GenCont_gcs0_35_S4, internal, instance=Green_Compact-1, generate
    94,  22476,    722
*Surface, type=ELEMENT, name=_GenCont_gcs0_35, internal
__GenCont_gcs0_35_S5, S5
__GenCont_gcs0_35_S6, S6
__GenCont_gcs0_35_S4, S4
*Elset, elset=__GenCont_gcs0_40_SPOS, internal, instance=Die_Upper-1, generate
  1,  30,   1
*Surface, type=ELEMENT, name=_GenCont_gcs0_40, internal
__GenCont_gcs0_40_SPOS, SPOS
*Elset, elset=__GenCont_gcs0_43_SNEG, internal, instance=Die_Upper-1, generate
  1,  30,   1
*Surface, type=ELEMENT, name=_GenCont_gcs0_43, internal
__GenCont_gcs0_43_SNEG, SNEG
*End Assembly
** 
** ELEMENT CONTROLS
** 
*Section Controls, name=EC-1, DISTORTION CONTROL=YES, hourglass=ENHANCED
1., 1., 1.
*Amplitude, name=Amp-1
             0.,              0.,              1.,              1.,             10.,              1.
** 
** MATERIALS
** 
*Material, name=Powder
*ELASTIC, DEPENDENCIES=1
2000, 0.29, 0.00
2000, 0.29,0, 0.01
**
*USER DEFINED FIELD
**
*Creep, law=USER
*Swelling, law=USER
*DEPVAR
5
**
** INTERACTION PROPERTIES
** 
*Surface Interaction, name=IntProp-1
1.,
*Friction, slip tolerance=0.005
 0.1,
*Surface Behavior, pressure-overclosure=HARD
** 
** BOUNDARY CONDITIONS
** 
** Name: FIX Type: Symmetry/Antisymmetry/Encastre
*Boundary
Set-3, ENCASTRE
** Name: Upper_In-plane Type: Displacement/Rotation
*Boundary
Set-4, 1, 1
Set-4, 2, 2
Set-4, 4, 4
Set-4, 5, 5
Set-4, 6, 6
** 
** PREDEFINED FIELDS
** 
** Name: Temp   Type: Temperature
*Initial Conditions, type=TEMPERATURE
Green_Compact-1.Set-1, 1000.
*Cyclic Symmetry Model, n=36
0.035, -1.42675e-15, 0.81, 0.035, 4.45771e-16, 8.
** 
** INTERACTIONS
** 
** Interaction: GenCont
*Contact
*Contact Inclusions, ALL EXTERIOR
*Contact Property Assignment
 ,  , IntProp-1
*Surface Property Assignment, property=GEOMETRIC CORRECTION
_GenCont_gcs0_10, Circumferential, 0.035, -5.18296e-16, 0.405,  0.035, -5.78598e-16, -0.595
_GenCont_gcs0_12, Circumferential, 0.035, -2.46937e-16, 4.905,  0.035, -3.07239e-16, 3.905
_GenCont_gcs0_23, Circumferential, 0.035, -5.18296e-16, 0.405,  0.035, -5.78598e-16, -0.595
_GenCont_gcs0_25, Circumferential, 0.035, -2.46937e-16, 4.905,  0.035, -3.07239e-16, 3.905
_GenCont_gcs0_28, Circumferential, 0., 0., 0.,  0., 0., 1.
_GenCont_gcs0_30, Circumferential, 0.035, -1.12846e-15, 0.405,  0.035, -1.12846e-15, 1.405
_GenCont_gcs0_35, Circumferential, 0., 0., 0.,  0., 0., 1.
_GenCont_gcs0_40, Circumferential, 0.035, -5.26292e-16, 8.405,  0.035, -5.87524e-16, 9.405
_GenCont_gcs0_43, Circumferential, 0.035, -5.26292e-16, 8.405,  0.035, -5.87524e-16, 9.405
** ----------------------------------------------------------------
** 
** STEP: Consolidation
** 
*Step, name=Consolidation, nlgeom=YES, inc=100000
*Visco, cetol=0.00001, creep=EXPLICIT, stabilize=0.0002, allsdtol=0.05, continue=NO
0.0001, 10., 1e-10, 1.
** 
** BOUNDARY CONDITIONS
** 
** Name: Upper_Down Type: Displacement/Rotation
*Boundary, amplitude=Amp-1
Set-5, 3, 3, -1.8
** 
** OUTPUT REQUESTS
** 
*Restart, write, frequency=0
** 
** FIELD OUTPUT: F-Output-1
** 
*Output, field
*Node Output
CF, RF, U
*Element Output, directions=YES
CE, CEEQ, CEMAG, CESW, LE, PE, PEEQ, PEMAG, S, SDV
*Contact Output
CDISP, CSTRESS
** 
** HISTORY OUTPUT: H-Output-2
** 
*Output, history
*Node Output, nset=Set-4
RF3, U3
** 
** HISTORY OUTPUT: H-Output-1
** 
*Output, history, variable=PRESELECT
*End Step
