**
** Indentation creep of powder metal implemented with CREEP subroutine
** Author: Youngbin LIM
** Contact: lyb0684@naver.com
**
*Heading
** Job name: Indentation Model name: Model-1
** Generated by: Abaqus/CAE 2023
*Preprint, echo=NO, model=NO, history=NO, contact=NO
**
** PARTS
**
*Part, name=Indenter
*Node
      1,           0.,         1.25
      2,   0.29422161,   1.26155996
      3,  0.586629272,   1.29616868
      4,  0.875420094,   1.35361278
      5,   1.15881371,   1.43353808
      6,   1.43506289,   1.53545177
      7,   1.70246434,    1.6587255
      8,   1.95936966,   1.80259943
      9,   2.20419478,   1.96618629
     10,   2.43543029,   2.14847755
     11,   2.65165043,   2.34834957
     12,   2.85152245,   2.56456971
     13,   3.03381371,   2.79580522
     14,   3.19740057,   3.04063034
     15,    3.3412745,   3.29753566
     16,   3.46454835,   3.56493711
     17,   3.56646204,   3.84118629
     18,    3.6463871,   4.12457991
     19,    3.7038312,   4.41337061
     20,   3.73844004,    4.7057786
     21,         3.75,           5.
*Element, type=R2D2
 1,  1,  2
 2,  2,  3
 3,  3,  4
 4,  4,  5
 5,  5,  6
 6,  6,  7
 7,  7,  8
 8,  8,  9
 9,  9, 10
10, 10, 11
11, 11, 12
12, 12, 13
13, 13, 14
14, 14, 15
15, 15, 16
16, 16, 17
17, 17, 18
18, 18, 19
19, 19, 20
20, 20, 21
*Node
     22,           0.,           5.,           0.
*Nset, nset=Indenter-RefPt_, internal
22, 
*Elset, elset=Indenter, generate
  1,  20,   1
*End Part
**  
*Part, name=Powder
*Node
      1,        2.875,       -1.875
      2,        2.875,           0.
      3,           0.,           0.
      4,           0.,       -1.875
      5,           0.,          -5.
      6,         8.75,          -5.
      7,         8.75,           0.
      8,        2.875,  -1.77631581
      9,        2.875,  -1.67763162
     10,        2.875,  -1.57894742
     11,        2.875,  -1.48026311
     12,        2.875,  -1.38157892
     13,        2.875,  -1.28289473
     14,        2.875,  -1.18421054
     15,        2.875,  -1.08552635
     16,        2.875, -0.986842096
     17,        2.875, -0.888157904
     18,        2.875, -0.789473712
     19,        2.875, -0.690789461
     20,        2.875, -0.592105269
** ... 1217 like lines cut
*Element, type=CPE4R
  1,   1,   8, 159,  99
  2,   8,   9, 160, 159
  3,   9,  10, 161, 160
  4,  10,  11, 162, 161
  5,  11,  12, 163, 162
  6,  12,  13, 164, 163
  7,  13,  14, 165, 164
  8,  14,  15, 166, 165
  9,  15,  16, 167, 166
 10,  16,  17, 168, 167
 11,  17,  18, 169, 168
 12,  18,  19, 170, 169
 13,  19,  20, 171, 170
 14,  20,  21, 172, 171
 15,  21,  22, 173, 172
 16,  22,  23, 174, 173
 17,  23,  24, 175, 174
 18,  24,  25, 176, 175
 19,  25,   2,  26, 176
 20,  99, 159, 177,  98
** ... 1153 like lines cut
*Element, type=CPE3
552,  901,  873,  880
553, 1201,  934,  872
554,  927,  892,  893
555,  931,  902,  899
556,  972,  946,  945
557, 1231,  961,  933
558, 1236,  944,  965
559, 1005,  951,  950
560, 1050, 1036, 1049
561, 1048, 1035, 1026
562, 1014, 1059, 1045
563, 1065, 1225, 1054
564, 1152, 1195, 1130
565, 1211, 1004, 1016
566,  999,  988, 1206
*Nset, nset=Set-1, generate
    1,  1237,     1
*Elset, elset=Set-1, generate
    1,  1188,     1
** Section: Powder
*Solid Section, elset=Set-1, material=Powder
,
*End Part
**  
**
** ASSEMBLY
**
*Assembly, name=Assembly
**  
*Instance, name=Indenter-1, part=Indenter
          0.,        -1.25,           0.
*End Instance
**  
*Instance, name=Powder-1, part=Powder
*End Instance
**  
*Nset, nset=Set-1, instance=Powder-1
   5,   6,   7, 111, 112, 113, 114, 115, 116, 117, 118, 119, 120, 121, 122, 123
 124, 125, 126, 127, 128, 129, 130, 131, 132, 133, 134, 135, 136
*Elset, elset=Set-1, instance=Powder-1
  617,  630,  631,  638,  967, 1019, 1037, 1062, 1097, 1101, 1103, 1106, 1112, 1113, 1115, 1117
 1122, 1127, 1128, 1130, 1131, 1134, 1143, 1146, 1147, 1159, 1160
*Nset, nset=Set-2, instance=Indenter-1
 22,
*Nset, nset=Set-3, instance=Powder-1, generate
    1,  1237,     1
*Elset, elset=Set-3, instance=Powder-1, generate
    1,  1188,     1
*Nset, nset=Set-4, instance=Powder-1
   3,   4,   5,  54,  55,  56,  57,  58,  59,  60,  61,  62,  63,  64,  65,  66
  67,  68,  69,  70,  71, 100, 101, 102, 103, 104, 105, 106, 107, 108, 109, 110
*Elset, elset=Set-4, instance=Powder-1
 533, 534, 535, 536, 537, 538, 539, 540, 541, 542, 543, 544, 545, 546, 547, 548
 549, 550, 551, 594, 597, 608, 610, 612, 617, 676, 677, 686, 731, 785, 935
*Rigid Body, ref node=Indenter-1.Indenter-RefPt_, elset=Indenter-1.Indenter
*Elset, elset=__Int-1_gcs0_1_SPOS, internal, instance=Indenter-1, generate
  1,  20,   1
*Surface, type=ELEMENT, name=_Int-1_gcs0_1, internal
__Int-1_gcs0_1_SPOS, SPOS
*Elset, elset=__Int-1_gcs0_2_SNEG, internal, instance=Indenter-1, generate
  1,  20,   1
*Surface, type=ELEMENT, name=_Int-1_gcs0_2, internal
__Int-1_gcs0_2_SNEG, SNEG
*End Assembly
*Amplitude, name=Ind_Amp
             0.,              0.,             3.,              1.,           3000.,              1.
** 
** MATERIALS
** 
*Material, name=Powder
**
*Elastic, dependencies=1
2000., 0.29, ,   0.
2000., 0.29, ,  0.1
**
*USER DEFINED FIELD
**
*Creep, law=USER
*Swelling, law=USER
**
*DEPVAR
5
** 
** INTERACTION PROPERTIES
** 
*Surface Interaction, name=IntProp-1
1.,
*Friction, slip tolerance=0.005
 0.1,
*Surface Behavior, pressure-overclosure=HARD
** 
** BOUNDARY CONDITIONS
** 
** Name: FIX Type: Displacement/Rotation
*Boundary
Set-1, 1, 1
Set-1, 2, 2
** Name: Indenter Type: Displacement/Rotation
*Boundary
Set-2, 1, 1
Set-2, 2, 2
Set-2, 6, 6
** Name: Sym Type: Displacement/Rotation
*Boundary
Set-4, 1, 1
** 
** PREDEFINED FIELDS
** 
** Name: Temp   Type: Temperature
*Initial Conditions, type=TEMPERATURE
Set-3, 1198.15
** 
** INTERACTIONS
** 
** Interaction: Int-1
*Contact
*Contact Inclusions, ALL EXTERIOR
*Contact Property Assignment
 ,  , IntProp-1
*Surface Property Assignment, property=GEOMETRIC CORRECTION
_Int-1_gcs0_1, Circumferential, 0., 3.75
_Int-1_gcs0_2, Circumferential, 0., 3.75
** ----------------------------------------------------------------
** 
** STEP: Indentation
** 
*Step, name=Indentation, nlgeom=YES, inc=10000
*Visco, cetol=0.0001, creep=EXPLICIT, stabilize=0.0002, allsdtol=0.05, continue=NO
0.0001, 3000., 1e-09, 100.
** 
** BOUNDARY CONDITIONS
** 
** Name: Indenter Type: Displacement/Rotation
*Boundary, amplitude=Ind_Amp
Set-2, 1, 1
Set-2, 2, 2, -1.
Set-2, 6, 6
** 
** OUTPUT REQUESTS
** 
*Restart, write, frequency=0
** 
** FIELD OUTPUT: F-Output-1
** 
*Output, field
*Node Output
CF, RF, U
*Element Output, directions=YES
CE, CEEQ, CEMAG, CESW, LE, S, SDV
*Contact Output
CDISP, CSTRESS
** 
** HISTORY OUTPUT: H-Output-1
** 
*Output, history, variable=PRESELECT
*End Step
